jwang/notes/ieee39_ev2_out.txt
ANDES 0.post4598.dev0+gc6db20d
Copyright (C) 2015-2022 Hantao Cui

ANDES comes with ABSOLUTELY NO WARRANTY
Case file: /Users/jinningwang/Documents/work/andes/jwang/case/ieee39_ev2.xlsx
Report time: 03/28/2023 06:46:07 PM

Power flow converged in 5 iterations.
Flat-start: No

Statistics:
Buses                             39
Generators                        11
Committed Gens                    11
Loads                             19
Shunts                             2
Lines                             46
Transformers                      12
Areas                              2

EXTENDED SUMMARY:
                              P (pu)            Q (pu)

Generation                    58.929            5.7552
Load                          58.564            11.722

BUS DATA:
                            Bus Name            Vm(pu)          Va(rad.)

1                               BUS1            1.0524          -0.21277
2                               BUS2            1.0573          -0.24631
3                              LOAD3            1.0534          -0.31216
4                              LOAD4            1.0766          -0.30087
5                               BUS5            1.0909          -0.27281
6                               BUS6            1.0908          -0.26206
7                              LOAD7            1.0811          -0.28896
8                              LOAD8             1.079          -0.29343
9                               BUS9            1.0617          -0.23439
10                             BUS10            1.0853          -0.23014
11                             BUS11            1.0866          -0.24264
12                            LOAD12            1.0835          -0.26555
13                             BUS13            1.0819          -0.24417
14                             BUS14             1.075          -0.27242
15                            LOAD15             1.053          -0.28519
16                            LOAD16            1.0526          -0.26416
17                             BUS17            1.0527          -0.29043
18                            LOAD18            1.0517          -0.30591
19                             BUS19            1.0665          -0.18247
20                            LOAD20             1.003          -0.20624
21                            LOAD21            1.0479          -0.21901
22                             BUS22            1.0611          -0.13863
23                            LOAD23            1.0533          -0.14198
24                            LOAD24            1.0518          -0.26072
25                            LOAD25             1.051          -0.24653
26                            LOAD26            1.0589          -0.28713
27                            LOAD27            1.0506          -0.30847
28                            LOAD28            1.0548           -0.2612
29                            LOAD29            1.0528           -0.2245
30                             GEN30            1.0355          -0.17235
31                             GEN31            1.0132          -0.14658
32                             GEN32            1.0205         -0.089593
33                             GEN33            1.0134         -0.091498
34                             GEN34            1.0191          -0.11709
35                             GEN35              1.06         -0.048985
36                             GEN36              1.06       -0.00045658
37                             GEN37             1.014          -0.17446
38                             GEN38            1.0528          -0.11525
39                             GEN39              1.03          -0.19129

LINE DATA:
                           Line Name     Fr. Bus (idx)      To Bus (idx)       P From (pu)       Q From (pu)         P To (pu)         Q To (pu)

Line_1                        Line_1                 1                 2           0.89195          -0.57341          -0.88932          -0.17324
Line_2                        Line_2                 1                39          -0.89195           0.57341           0.89355           -1.3466
Line_3                        Line_3                 2                 3            4.8545          -0.12955           -4.8271           0.16139
Line_4                        Line_4                 2                25           0.39571           0.36989          -0.39345          -0.52937
Line_5                        Line_5                 3                 4          -0.66789           -1.2227           0.66983            1.0033
Line_6                        Line_6                 3                18          -0.50504           0.06128           0.50533           -0.2947
Line_7                        Line_7                 4                 5           -2.6376           -1.0846            2.6431             1.015
Line_8                        Line_8                 4                14           -2.5323           0.24025            2.5368          -0.32768
Line_9                        Line_9                 5                 6            -4.883           0.43418             4.887          -0.43327
Line_10                      Line_10                 5                 8            2.2399           0.93102           -2.2359           -1.0478
Line_11                      Line_11                 6                 7            3.5106           0.90123           -3.5039          -0.93194
Line_12                      Line_12                 6                11           -2.7376           0.73417            2.7424          -0.84255
Line_13                      Line_13                 7                 8            1.1659           0.33194           -1.1654          -0.41702
Line_14                      Line_14                 8                 9           -1.8188           0.46481            1.8262          -0.78284
Line_15                      Line_15                 9                39           -1.8262           0.78284            1.8311           -1.9745
Line_16                      Line_16                10                11            3.3709          -0.66321           -3.3669           0.62013
Line_17                      Line_17                10                13            3.8791           0.46883           -3.8739          -0.49855
Line_18                      Line_18                13                14            3.2973             0.392           -3.2888          -0.49651
Line_19                      Line_19                14                15           0.75202           0.82419          -0.74947           -1.2078
Line_20                      Line_20                15                16           -2.4505           0.20782            2.4555          -0.34565
Line_21                      Line_21                16                17            3.2519          -0.29983           -3.2452           0.23649
Line_22                      Line_22                16                19           -4.7118           -0.3427            4.7439           0.39269
Line_23                      Line_23                16                21           -3.6481           0.52596             3.658          -0.63941
Line_24                      Line_24                16                24          -0.63743           0.13923           0.63755          -0.21218
Line_25                      Line_25                17                18            2.0881          -0.10846           -2.0853        -0.0052985
Line_26                      Line_26                17                27            1.1571          -0.12803           -1.1555          -0.20671
Line_27                      Line_27                21                22            -6.398          -0.51059             6.428           0.74904
Line_28                      Line_28                22                23           0.44205           0.73563          -0.44157          -0.93428
Line_29                      Line_29                23                24            3.7515          -0.16807           -3.7235           0.21218
Line_30                      Line_30                25                26            1.3625          -0.64542           -1.3567            0.1326
Line_31                      Line_31                26                27            1.6582            0.3205           -1.6545          -0.54829
Line_32                      Line_32                26                28          -0.59682          -0.28386           0.59828          -0.57147
Line_33                      Line_33                26                29           -1.0946          -0.33924             1.101          -0.73796
Line_34                      Line_34                28                29           -2.6583           0.29547            2.6674          -0.47352
Line_35                      Line_35                 2                30           -4.3609         -0.067104            4.3609           0.39067
Line_36                      Line_36                31                 6              5.66            1.9056             -5.66           -1.2021
Line_37                      Line_37                10                32             -7.25           0.19438              7.25           0.82818
Line_38                      Line_38                12                11          -0.62387          -0.20623           0.62446           0.22242
Line_39                      Line_39                12                13          -0.57613         -0.093768            0.5766           0.10654
Line_40                      Line_40                19                20            1.7462           0.16363            -1.744           -0.1217
Line_41                      Line_41                19                33           -6.4901          -0.55632              6.52            1.1628
Line_42                      Line_42                20                34            -5.056           -0.9083              5.08             1.389
Line_43                      Line_43                22                35             -6.87           -1.4847              6.87            2.1438
Line_44                      Line_44                23                36           -5.7849           0.25635               5.8           0.56575
Line_45                      Line_45                25                37           -3.2091           0.70279            3.2152          -0.46466
Line_46                      Line_46                29                38           -7.6034           -0.8875            7.6478             1.754

OTHER ALGEBRAIC VARIABLES:
                                    

q PV 1                       0.39067
q PV 2                        2.3056
q PV 3                       0.82818
q PV 4                        1.1628
q PV 5                         1.389
q PV 6                        2.1438
q PV 7                       0.56576
q PV 8                      -0.46466
q PV 9                         1.754
q PV 10                     -0.99898
q Slack 10                    -3.321
p Slack 10                    6.7246

